feeders/ACEC/main.glm
clock {
timezone PST+8PDT;
stoptime '2000-01-02 00:00:00';
starttime '2000-01-01 00:00:00';
};

#set minimum_timestep=60;
#set profiler=1;
#set relax_naming_rules=1;
module generators;
module tape;
module climate;
module residential {
implicit_enduses NONE;
};

module powerflow {
solver_method FBS;
NR_iteration_limit 50;
};

module generators;
object climate {
name Climate;
interpolate QUADRATIC;
tmyfile climate.tmy2;
};

object node {
phases ABCN;
name FRIENDSHIP;
bustype SWING;
nominal_voltage 7200.0;
};

object regulator {
configuration object regulator_configuration {
Control MANUAL;
raise_taps 16;
name REG27-CONFIG;
band_center 2401;
Type A;
tap_pos_B 1;
tap_pos_C 1;
time_delay 30.0;
connect_type 1;
regulation 0.10;
CT_phase ABC;
lower_taps 16;
tap_pos_A 1;
PT_phase ABC;
band_width 50;
};
phases ABC;
from node958175REG27;
name REG27;
to FRIENDSHIP;
};

object underground_line {
configuration object line_configuration {
spacing object line_spacing {
name 958175-LINESPACING;
};
conductor_A object underground_line_conductor {
name 958175-PHASEA;
};
conductor_B object underground_line_conductor {
name 958175-PHASEB;
};
name 958175-LINECONFIG;
conductor_C object underground_line_conductor {
name 958175-PHASEC;
};
};
phases ABC;
from nodeRFRN1-R0001x1958175;
name 958175;
to node958175REG27;
length 24;
};

object fuse {
phases ABCN;
from node958178RFRN1-R0001x1;
name RFRN1-R0001x1;
current_limit 9999.0 A;
to nodeRFRN1-R0001x1958175;
};

object underground_line {
configuration object line_configuration {
spacing object line_spacing {
name 958178-LINESPACING;
};
conductor_A object underground_line_conductor {
name 958178-PHASEA;
};
conductor_B object underground_line_conductor {
name 958178-PHASEB;
};
name 958178-LINECONFIG;
conductor_C object underground_line_conductor {
name 958178-PHASEC;
};
};
phases ABC;
from node958179958178;
name 958178;
to node958178RFRN1-R0001x1;
length 780;
};

object underground_line {
configuration object line_configuration {
spacing object line_spacing {
name 958179-LINESPACING;
};
conductor_A object underground_line_conductor {
name 958179-PHASEA;
};
conductor_B object underground_line_conductor {
name 958179-PHASEB;
};
name 958179-LINECONFIG;
conductor_C object underground_line_conductor {
name 958179-PHASEC;
};
};
phases ABC;
from node978195958179;
name 958179;
to node958179958178;
length 860;
};

object underground_line {
configuration object line_configuration {
spacing object line_spacing {
name 978195-LINESPACING;
};
conductor_A object underground_line_conductor {
name 978195-PHASEA;
};
conductor_B object underground_line_conductor {
name 978195-PHASEB;
};
name 978195-LINECONFIG;
conductor_C object underground_line_conductor {
name 978195-PHASEC;
};
};
phases ABC;
from node978172978195;
name 978195;
to node978195958179;
length 1970;
};

object underground_line {
configuration object line_configuration {
spacing object line_spacing {
name 978172-LINESPACING;
};
conductor_A object underground_line_conductor {
name 978172-PHASEA;
};
conductor_B object underground_line_conductor {
name 978172-PHASEB;
};
name 978172-LINECONFIG;
conductor_C object underground_line_conductor {
name 978172-PHASEC;
};
};
phases ABC;
from node978174978172;
name 978172;
to node978172978195;
length 780;
};

object underground_line {
configuration object line_configuration {
spacing object line_spacing {
name 978174-LINESPACING;
};
conductor_B object underground_line_conductor {
name 978174-PHASEB;
};
name 978174-LINECONFIG;
};
phases B;
from nodeF28653x1978174;
name 978174;
to node978174978172;
length 30;
};

object fuse {
phases BN;
from node978192F28653x1;
name F28653x1;
current_limit 9999.0 A;
to nodeF28653x1978174;
};

object underground_line {
configuration object line_configuration {
spacing object line_spacing {
name 978192-LINESPACING;
};
conductor_B object underground_line_conductor {
name 978192-PHASEB;
};
name 978192-LINECONFIG;
};
phases B;
from node949317978192;
name 978192;
to node978192F28653x1;
length 40;
};

object underground_line {
configuration object line_configuration {
spacing object line_spacing {
name 949317-LINESPACING;
};
conductor_B object underground_line_conductor {
name 949317-PHASEB;
};
name 949317-LINECONFIG;
};
phases B;
from node949318949317;
name 949317;
to node949317978192;
length 469;
};

object underground_line {
configuration object line_configuration {
spacing object line_spacing {
name 949318-LINESPACING;
};
conductor_B object underground_line_conductor {
name 949318-PHASEB;
};
name 949318-LINECONFIG;
};
phases B;
from nodeT14104949318;
name 949318;
to node949318949317;
length 519;
};

object underground_line {
configuration object line_configuration {
spacing object line_spacing {
name 949319-LINESPACING;
};
conductor_B object underground_line_conductor {
name 949319-PHASEB;
};
name 949319-LINECONFIG;
};
phases B;
from nodeT14100949319;
name 949319;
to node949318949317;
length 40;
};

object transformer {
configuration object transformer_configuration {
powerC_rating 50 kVA;
name T14100-CONFIG;
shunt_impedance 10000+10000j;
secondary_voltage 240.0;
connect_type SINGLE_PHASE_CENTER_TAPPED;
impedance 0.00033+0.0022j;
primary_voltage 7200.0;
powerB_rating 50 kVA;
powerA_rating 50 kVA;
};
phases BN;
from nodeS1806-33-073T14100;
name T14100;
to nodeT14100949319;
};

object load {
phases BN;
load_class R;
name S1806-33-073;
parent nodeS1806-33-073T14100;
constant_power_C 0;
constant_power_A 0;
nominal_voltage 120;
constant_power_B 1.60259;
};

object transformer {
configuration object transformer_configuration {
powerC_rating 50 kVA;
name T14102-CONFIG;
shunt_impedance 10000+10000j;
secondary_voltage 240.0;
connect_type SINGLE_PHASE_CENTER_TAPPED;
impedance 0.00033+0.0022j;
primary_voltage 7200.0;
powerB_rating 50 kVA;
powerA_rating 50 kVA;
};
phases BN;
from nodeS1806-32-065T14102;
name T14102;
to node949317978192;
};

object load {
phases BN;
load_class R;
name S1806-32-065;
parent nodeS1806-32-065T14102;
constant_power_C 0;
constant_power_A 0;
nominal_voltage 120;
constant_power_B 1.06969;
};

object load {
phases BN;
load_class R;
name S1806-33-042;
parent nodeS1806-32-065T14102;
constant_power_C 0;
constant_power_A 0;
nominal_voltage 120;
constant_power_B 0.776014;
};

object underground_line {
configuration object line_configuration {
spacing object line_spacing {
name 978200-LINESPACING;
};
name 978200-LINECONFIG;
conductor_C object underground_line_conductor {
name 978200-PHASEC;
};
};
phases C;
from nodeR2911x1978200;
name 978200;
to node978174978172;
length 314;
};

object fuse {
phases CN;
from node839461R2911x1;
name R2911x1;
current_limit 9999.0 A;
to nodeR2911x1978200;
};

object overhead_line {
configuration object line_configuration {
spacing object line_spacing {
name 839461-LINESPACING;
};
name 839461-LINECONFIG;
conductor_N object overhead_line_conductor {
resistance 2.57;
geometric_mean_radius 0.00437;
};
conductor_C object overhead_line_conductor {
resistance 2.57;
geometric_mean_radius 0.00437;
};
};
phases CN;
from node839464839461;
name 839461;
to node839461R2911x1;
length 60;
};

object overhead_line {
configuration object line_configuration {
spacing object line_spacing {
name 839464-LINESPACING;
};
name 839464-LINECONFIG;
conductor_N object overhead_line_conductor {
resistance 2.57;
geometric_mean_radius 0.00437;
};
conductor_C object overhead_line_conductor {
resistance 2.57;
geometric_mean_radius 0.00437;
};
};
phases CN;
from node839466839464;
name 839464;
to node839464839461;
length 111;
};

object overhead_line {
configuration object line_configuration {
spacing object line_spacing {
name 839466-LINESPACING;
};
name 839466-LINECONFIG;
conductor_N object overhead_line_conductor {
resistance 2.57;
geometric_mean_radius 0.00437;
};
conductor_C object overhead_line_conductor {
resistance 2.57;
geometric_mean_radius 0.00437;
};
};
phases CN;
from node839469839466;
name 839466;
to node839466839464;
length 207;
};

object overhead_line {
configuration object line_configuration {
spacing object line_spacing {
name 839469-LINESPACING;
};
name 839469-LINECONFIG;
conductor_N object overhead_line_conductor {
resistance 2.57;
geometric_mean_radius 0.00437;
};
conductor_C object overhead_line_conductor {
resistance 2.57;
geometric_mean_radius 0.00437;
};
};
phases CN;
from node839471839469;
name 839469;
to node839469839466;
length 226;
};

object overhead_line {
configuration object line_configuration {
spacing object line_spacing {
name 839471-LINESPACING;
};
name 839471-LINECONFIG;
conductor_N object overhead_line_conductor {
resistance 2.57;
geometric_mean_radius 0.00437;
};
conductor_C object overhead_line_conductor {
resistance 2.57;
geometric_mean_radius 0.00437;
};
};
phases CN;
from node956777839471;
name 839471;
to node839471839469;
length 120;
};

object overhead_line {
configuration object line_configuration {
spacing object line_spacing {
name 956777-LINESPACING;
};
name 956777-LINECONFIG;
conductor_N object overhead_line_conductor {
resistance 2.57;
geometric_mean_radius 0.00437;
};
conductor_C object overhead_line_conductor {
resistance 2.57;
geometric_mean_radius 0.00437;
};
};
phases CN;
from node839473956777;
name 956777;
to node956777839471;
length 130;
};

object overhead_line {
configuration object line_configuration {
spacing object line_spacing {
name 839473-LINESPACING;
};
name 839473-LINECONFIG;
conductor_N object overhead_line_conductor {
resistance 2.57;
geometric_mean_radius 0.00437;
};
conductor_C object overhead_line_conductor {
resistance 2.57;
geometric_mean_radius 0.00437;
};
};
phases CN;
from node839475839473;
name 839473;
to node839473956777;
length 226;
};

object overhead_line {
configuration object line_configuration {
spacing object line_spacing {
name 839475-LINESPACING;
};
name 839475-LINECONFIG;
conductor_N object overhead_line_conductor {
resistance 2.57;
geometric_mean_radius 0.00437;
};
conductor_C object overhead_line_conductor {
resistance 2.57;
geometric_mean_radius 0.00437;
};
};
phases CN;
from node839477839475;
name 839475;
to node839475839473;
length 262;
};

object overhead_line {
configuration object line_configuration {
spacing object line_spacing {
name 839477-LINESPACING;
};
name 839477-LINECONFIG;
conductor_N object overhead_line_conductor {
resistance 2.57;
geometric_mean_radius 0.00437;
};
conductor_C object overhead_line_conductor {
resistance 2.57;
geometric_mean_radius 0.00437;
};
};
phases CN;
from node839479839477;
name 839477;
to node839477839475;
length 81;
};

object overhead_line {
configuration object line_configuration {
spacing object line_spacing {
name 839479-LINESPACING;
};
name 839479-LINECONFIG;
conductor_N object overhead_line_conductor {
resistance 2.57;
geometric_mean_radius 0.00437;
};
conductor_C object overhead_line_conductor {
resistance 2.57;
geometric_mean_radius 0.00437;
};
};
phases CN;
from node839481839479;
name 839479;
to node839479839477;
length 243;
};

object overhead_line {
configuration object line_configuration {
spacing object line_spacing {
name 839481-LINESPACING;
};
name 839481-LINECONFIG;
conductor_N object overhead_line_conductor {
resistance 2.57;
geometric_mean_radius 0.00437;
};
conductor_C object overhead_line_conductor {
resistance 2.57;
geometric_mean_radius 0.00437;
};
};
phases CN;
from node839483839481;
name 839481;
to node839481839479;
length 183;
};

object overhead_line {
configuration object line_configuration {
spacing object line_spacing {
name 839483-LINESPACING;
};
name 839483-LINECONFIG;
conductor_N object overhead_line_conductor {
resistance 2.57;
geometric_mean_radius 0.00437;
};
conductor_C object overhead_line_conductor {
resistance 2.57;
geometric_mean_radius 0.00437;
};
};
phases CN;
from node839484839483;
name 839483;
to node839483839481;
length 98;
};

object overhead_line {
configuration object line_configuration {
spacing object line_spacing {
name 839484-LINESPACING;
};
name 839484-LINECONFIG;
conductor_N object overhead_line_conductor {
resistance 2.57;
geometric_mean_radius 0.00437;
};
conductor_C object overhead_line_conductor {
resistance 2.57;
geometric_mean_radius 0.00437;
};
};
phases CN;
from node839486839484;
name 839484;
to node839484839483;
length 8;
};

object overhead_line {
configuration object line_configuration {
spacing object line_spacing {
name 839486-LINESPACING;
};
name 839486-LINECONFIG;
conductor_N object overhead_line_conductor {
resistance 2.57;
geometric_mean_radius 0.00437;
};
conductor_C object overhead_line_conductor {
resistance 2.57;
geometric_mean_radius 0.00437;
};
};
phases CN;
from node839488839486;
name 839486;
to node839486839484;
length 223;
};

object overhead_line {
configuration object line_configuration {
spacing object line_spacing {
name 839488-LINESPACING;
};
name 839488-LINECONFIG;
conductor_N object overhead_line_conductor {
resistance 2.57;
geometric_mean_radius 0.00437;
};
conductor_C object overhead_line_conductor {
resistance 2.57;
geometric_mean_radius 0.00437;
};
};
phases CN;
from node839490839488;
name 839488;
to node839488839486;
length 219;
};

object overhead_line {
configuration object line_configuration {
spacing object line_spacing {
name 839490-LINESPACING;
};
name 839490-LINECONFIG;
conductor_N object overhead_line_conductor {
resistance 2.57;
geometric_mean_radius 0.00437;
};
conductor_C object overhead_line_conductor {
resistance 2.57;
geometric_mean_radius 0.00437;
};
};
phases CN;
from node839491839490;
name 839490;
to node839490839488;
length 178;
};

object overhead_line {
configuration object line_configuration {
spacing object line_spacing {
name 839491-LINESPACING;
};
name 839491-LINECONFIG;
conductor_N object overhead_line_conductor {
resistance 2.57;
geometric_mean_radius 0.00437;
};
conductor_C object overhead_line_conductor {
resistance 2.57;
geometric_mean_radius 0.00437;
};
};
phases CN;
from node974130839491;
name 839491;
to node839491839490;
length 135;
};

object overhead_line {
configuration object line_configuration {
spacing object line_spacing {
name 974130-LINESPACING;
};
name 974130-LINECONFIG;
conductor_N object overhead_line_conductor {
resistance 2.57;
geometric_mean_radius 0.00437;
};
conductor_C object overhead_line_conductor {
resistance 2.57;
geometric_mean_radius 0.00437;
};
};
phases CN;
from node839493974130;
name 974130;
to node974130839491;
length 120;
};

object overhead_line {
configuration object line_configuration {
spacing object line_spacing {
name 839493-LINESPACING;
};
name 839493-LINECONFIG;
conductor_N object overhead_line_conductor {
resistance 2.57;
geometric_mean_radius 0.00437;
};
conductor_C object overhead_line_conductor {
resistance 2.57;
geometric_mean_radius 0.00437;
};
};
phases CN;
from node839496839493;
name 839493;
to node839493974130;
length 261;
};

object overhead_line {
configuration object line_configuration {
spacing object line_spacing {
name 839496-LINESPACING;
};
name 839496-LINECONFIG;
conductor_N object overhead_line_conductor {
resistance 2.57;
geometric_mean_radius 0.00437;
};
conductor_C object overhead_line_conductor {
resistance 2.57;
geometric_mean_radius 0.00437;
};
};
phases CN;
from node839497839496;
name 839496;
to node839496839493;
length 56;
};

object overhead_line {
configuration object line_configuration {
spacing object line_spacing {
name 839497-LINESPACING;
};
name 839497-LINECONFIG;
conductor_N object overhead_line_conductor {
resistance 2.57;
geometric_mean_radius 0.00437;
};
conductor_C object overhead_line_conductor {
resistance 2.57;
geometric_mean_radius 0.00437;
};
};
phases CN;
from node839499839497;
name 839497;
to node839497839496;
length 191;
};

object overhead_line {
configuration object line_configuration {
spacing object line_spacing {
name 839499-LINESPACING;
};
name 839499-LINECONFIG;
conductor_N object overhead_line_conductor {
resistance 2.57;
geometric_mean_radius 0.00437;
};
conductor_C object overhead_line_conductor {
resistance 2.57;
geometric_mean_radius 0.00437;
};
};
phases CN;
from node839502839499;
name 839499;
to node839499839497;
length 223;
};

object overhead_line {
configuration object line_configuration {
spacing object line_spacing {
name 839502-LINESPACING;
};
name 839502-LINECONFIG;
conductor_N object overhead_line_conductor {
resistance 2.57;
geometric_mean_radius 0.00437;
};
conductor_C object overhead_line_conductor {
resistance 2.57;
geometric_mean_radius 0.00437;
};
};
phases CN;
from node839503839502;
name 839502;
to node839502839499;
length 91;
};

object overhead_line {
configuration object line_configuration {
spacing object line_spacing {
name 839503-LINESPACING;
};
name 839503-LINECONFIG;
conductor_N object overhead_line_conductor {
resistance 2.57;
geometric_mean_radius 0.00437;
};
conductor_C object overhead_line_conductor {
resistance 2.57;
geometric_mean_radius 0.00437;
};
};
phases CN;
from node839505839503;
name 839503;
to node839503839502;
length 134;
};

object underground_line {
configuration object line_configuration {
spacing object line_spacing {
name 839505-LINESPACING;
};
name 839505-LINECONFIG;
conductor_C object underground_line_conductor {
name 839505-PHASEC;
};
};
phases C;
from nodeFFRN1-F008x1839505;
name 839505;
to node839505839503;
length 18;
};

object fuse {
phases CN;
from node839506FFRN1-F008x1;
name FFRN1-F008x1;
current_limit 9999.0 A;
to nodeFFRN1-F008x1839505;
};

object underground_line {
configuration object line_configuration {
spacing object line_spacing {
name 839506-LINESPACING;
};
name 839506-LINECONFIG;
conductor_C object underground_line_conductor {
name 839506-PHASEC;
};
};
phases C;
from node839509839506;
name 839506;
to node839506FFRN1-F008x1;
length 65;
};

object underground_line {
configuration object line_configuration {
spacing object line_spacing {
name 839509-LINESPACING;
};
name 839509-LINECONFIG;
conductor_C object underground_line_conductor {
name 839509-PHASEC;
};
};
phases C;
from node839511839509;
name 839509;
to node839509839506;
length 136;
};

object underground_line {
configuration object line_configuration {
spacing object line_spacing {
name 839511-LINESPACING;
};
name 839511-LINECONFIG;
conductor_C object underground_line_conductor {
name 839511-PHASEC;
};
};
phases C;
from node839512839511;
name 839511;
to node839511839509;
length 53;
};

object underground_line {
configuration object line_configuration {
spacing object line_spacing {
name 839512-LINESPACING;
};
name 839512-LINECONFIG;
conductor_C object underground_line_conductor {
name 839512-PHASEC;
};
};
phases C;
from node839514839512;
name 839512;
to node839512839511;
length 206;
};

object underground_line {
configuration object line_configuration {
spacing object line_spacing {
name 839514-LINESPACING;
};
name 839514-LINECONFIG;
conductor_C object underground_line_conductor {
name 839514-PHASEC;
};
};
phases C;
from node910237839514;
name 839514;
to node839514839512;
length 184;
};

object underground_line {
configuration object line_configuration {
spacing object line_spacing {
name 910237-LINESPACING;
};
name 910237-LINECONFIG;
conductor_C object underground_line_conductor {
name 910237-PHASEC;
};
};
phases C;
from node906381910237;
name 910237;
to node910237839514;
length 129;
};

object underground_line {
configuration object line_configuration {
spacing object line_spacing {
name 906381-LINESPACING;
};
name 906381-LINECONFIG;
conductor_C object underground_line_conductor {
name 906381-PHASEC;
};
};
phases C;
from node839516906381;
name 906381;
to node906381910237;
length 134;
};

object underground_line {
configuration object line_configuration {
spacing object line_spacing {
name 839516-LINESPACING;
};
name 839516-LINECONFIG;
conductor_C object underground_line_conductor {
name 839516-PHASEC;
};
};
phases C;
from node839517839516;
name 839516;
to node839516906381;
length 40;
};

object underground_line {
configuration object line_configuration {
spacing object line_spacing {
name 839517-LINESPACING;
};
name 839517-LINECONFIG;
conductor_C object underground_line_conductor {
name 839517-PHASEC;
};
};
phases C;
from node839519839517;
name 839517;
to node839517839516;
length 165;
};

object underground_line {
configuration object line_configuration {
spacing object line_spacing {
name 839519-LINESPACING;
};
name 839519-LINECONFIG;
conductor_C object underground_line_conductor {
name 839519-PHASEC;
};
};
phases C;
from node839521839519;
name 839519;
to node839519839517;
length 174;
};

object underground_line {
configuration object line_configuration {
spacing object line_spacing {
name 839521-LINESPACING;
};
name 839521-LINECONFIG;
conductor_C object underground_line_conductor {
name 839521-PHASEC;
};
};
phases C;
from node1806-0087839521;
name 839521;
to node839521839519;
length 331;
};

object transformer {
configuration object transformer_configuration {
powerC_rating 50 kVA;
name 1806-0087-CONFIG;
shunt_impedance 10000+10000j;
secondary_voltage 240.0;
connect_type SINGLE_PHASE_CENTER_TAPPED;
impedance 0.00033+0.0022j;
primary_voltage 7200.0;
powerB_rating 50 kVA;
powerA_rating 50 kVA;
};
phases CN;
from nodeS1806-33-0471806-0087;
name 1806-0087;
to node1806-0087839521;
};

object load {
phases CN;
load_class R;
name S1806-33-047;
parent nodeS1806-33-0471806-0087;
constant_power_C 4.65414;
constant_power_A 0;
nominal_voltage 120;
constant_power_B 0;
};

object load {
phases CN;
load_class R;
name S1806-33-059;
parent nodeS1806-33-0471806-0087;
constant_power_C 3.44247;
constant_power_A 0;
nominal_voltage 120;
constant_power_B 0;
};

object transformer {
configuration object transformer_configuration {
powerC_rating 50 kVA;
name 1806-0085-CONFIG;
shunt_impedance 10000+10000j;
secondary_voltage 240.0;
connect_type SINGLE_PHASE_CENTER_TAPPED;
impedance 0.00033+0.0022j;
primary_voltage 7200.0;
powerB_rating 50 kVA;
powerA_rating 50 kVA;
};
phases CN;
from nodeS1806-33-0501806-0085;
name 1806-0085;
to node839521839519;
};

object load {
phases CN;
load_class R;
name S1806-33-050;
parent nodeS1806-33-0501806-0085;
constant_power_C 2.82205;
constant_power_A 0;
nominal_voltage 120;
constant_power_B 0;
};

object transformer {
configuration object transformer_configuration {
powerC_rating 50 kVA;
name 1806-33-031-CONFIG;
shunt_impedance 10000+10000j;
secondary_voltage 240.0;
connect_type SINGLE_PHASE_CENTER_TAPPED;
impedance 0.00033+0.0022j;
primary_voltage 7200.0;
powerB_rating 50 kVA;
powerA_rating 50 kVA;
};
phases CN;
from nodeS1806-33-0321806-33-031;
name 1806-33-031;
to node839519839517;
};

object load {
phases CN;
load_class R;
name S1806-33-032;
parent nodeS1806-33-0321806-33-031;
constant_power_C 2.90762;
constant_power_A 0;
nominal_voltage 120;
constant_power_B 0;
};

object transformer {
configuration object transformer_configuration {
powerC_rating 50 kVA;
name 1806-33-030-CONFIG;
shunt_impedance 10000+10000j;
secondary_voltage 240.0;
connect_type SINGLE_PHASE_CENTER_TAPPED;
impedance 0.00033+0.0022j;
primary_voltage 7200.0;
powerB_rating 50 kVA;
powerA_rating 50 kVA;
};
phases CN;
from nodeS1806-33-0441806-33-030;
name 1806-33-030;
to node839516906381;
};

object load {
phases CN;
load_class R;
name S1806-33-044;
parent nodeS1806-33-0441806-33-030;
constant_power_C 0.702108;
constant_power_A 0;
nominal_voltage 120;
constant_power_B 0;
};

object underground_line {
configuration object line_configuration {
spacing object line_spacing {
name 906382-LINESPACING;
};
name 906382-LINECONFIG;
conductor_C object underground_line_conductor {
name 906382-PHASEC;
};
};
phases C;
from nodeT4303906382;
name 906382;
to node906381910237;
length 194;
};

object transformer {
configuration object transformer_configuration {
powerC_rating 50 kVA;
name T4303-CONFIG;
shunt_impedance 10000+10000j;
secondary_voltage 240.0;
connect_type SINGLE_PHASE_CENTER_TAPPED;
impedance 0.00033+0.0022j;
primary_voltage 7200.0;
powerB_rating 50 kVA;
powerA_rating 50 kVA;
};
phases CN;
from nodeS1806-33-069T4303;
name T4303;
to nodeT4303906382;
};

object load {
phases CN;
load_class R;
name S1806-33-069;
parent nodeS1806-33-069T4303;
constant_power_C 5.19287;
constant_power_A 0;
nominal_voltage 120;
constant_power_B 0;
};

object underground_line {
configuration object line_configuration {
spacing object line_spacing {
name 910238-LINESPACING;
};
name 910238-LINECONFIG;
conductor_C object underground_line_conductor {
name 910238-PHASEC;
};
};
phases C;
from nodeT4006910238;
name 910238;
to node910237839514;
length 204;
};

object transformer {
configuration object transformer_configuration {
powerC_rating 50 kVA;
name T4006-CONFIG;
shunt_impedance 10000+10000j;
secondary_voltage 240.0;
connect_type SINGLE_PHASE_CENTER_TAPPED;
impedance 0.00033+0.0022j;
primary_voltage 7200.0;
powerB_rating 50 kVA;
powerA_rating 50 kVA;
};
phases CN;
from nodeS1806-33-068T4006;
name T4006;
to nodeT4006910238;
};

object load {
phases CN;
load_class R;
name S1806-33-068;
parent nodeS1806-33-068T4006;
constant_power_C 0.705998;
constant_power_A 0;
nominal_voltage 120;
constant_power_B 0;
};

object underground_line {
configuration object line_configuration {
spacing object line_spacing {
name 970774-LINESPACING;
};
name 970774-LINECONFIG;
conductor_C object underground_line_conductor {
name 970774-PHASEC;
};
};
phases C;
from nodeT28678970774;
name 970774;
to node839512839511;
length 80;
};

object transformer {
configuration object transformer_configuration {
powerC_rating 50 kVA;
name T28678-CONFIG;
shunt_impedance 10000+10000j;
secondary_voltage 240.0;
connect_type SINGLE_PHASE_CENTER_TAPPED;
impedance 0.00033+0.0022j;
primary_voltage 7200.0;
powerB_rating 50 kVA;
powerA_rating 50 kVA;
};
phases CN;
from nodeS1806-33-077T28678;
name T28678;
to nodeT28678970774;
};

object load {
phases CN;
load_class R;
name S1806-33-077;
parent nodeS1806-33-077T28678;
constant_power_C 2.0402;
constant_power_A 0;
nominal_voltage 120;
constant_power_B 0;
};

object transformer {
configuration object transformer_configuration {
powerC_rating 50 kVA;
name 1806-33-025-CONFIG;
shunt_impedance 10000+10000j;
secondary_voltage 240.0;
connect_type SINGLE_PHASE_CENTER_TAPPED;
impedance 0.00033+0.0022j;
primary_voltage 7200.0;
powerB_rating 50 kVA;
powerA_rating 50 kVA;
};
phases CN;
from nodeS1806-33-0161806-33-025;
name 1806-33-025;
to node839505839503;
};

object load {
phases CN;
load_class R;
name S1806-33-016;
parent nodeS1806-33-0161806-33-025;
constant_power_C 0.525122;
constant_power_A 0;
nominal_voltage 120;
constant_power_B 0;
};

object load {
phases CN;
load_class R;
name S1806-33-023;
parent nodeS1806-33-0161806-33-025;
constant_power_C 1.01913;
constant_power_A 0;
nominal_voltage 120;
constant_power_B 0;
};

object load {
phases CN;
load_class R;
name S1806-33-026;
parent nodeS1806-33-0161806-33-025;
constant_power_C 0.0544571;
constant_power_A 0;
nominal_voltage 120;
constant_power_B 0;
};

object transformer {
configuration object transformer_configuration {
powerC_rating 50 kVA;
name 1806-33-024-CONFIG;
shunt_impedance 10000+10000j;
secondary_voltage 240.0;
connect_type SINGLE_PHASE_CENTER_TAPPED;
impedance 0.00033+0.0022j;
primary_voltage 7200.0;
powerB_rating 50 kVA;
powerA_rating 50 kVA;
};
phases CN;
from nodeS1806-33-0131806-33-024;
name 1806-33-024;
to node839502839499;
};

object load {
phases CN;
load_class R;
name S1806-33-013;
parent nodeS1806-33-0131806-33-024;
constant_power_C 0.108914;
constant_power_A 0;
nominal_voltage 120;
constant_power_B 0;
};

object load {
phases CN;
load_class R;
name S1806-33-031;
parent nodeS1806-33-0131806-33-024;
constant_power_C 0.529012;
constant_power_A 0;
nominal_voltage 120;
constant_power_B 0;
};

object load {
phases CN;
load_class R;
name S1806-33-037;
parent nodeS1806-33-0131806-33-024;
constant_power_C 0.490114;
constant_power_A 0;
nominal_voltage 120;
constant_power_B 0;
};

object load {
phases CN;
load_class R;
name S1806-33-038;
parent nodeS1806-33-0131806-33-024;
constant_power_C 0;
constant_power_A 0;
nominal_voltage 120;
constant_power_B 0;
};

object transformer {
configuration object transformer_configuration {
powerC_rating 50 kVA;
name 1806-33-022-CONFIG;
shunt_impedance 10000+10000j;
secondary_voltage 240.0;
connect_type SINGLE_PHASE_CENTER_TAPPED;
impedance 0.00033+0.0022j;
primary_voltage 7200.0;
powerB_rating 50 kVA;
powerA_rating 50 kVA;
};
phases CN;
from nodeS1806-33-0411806-33-022;
name 1806-33-022;
to node839499839497;
};

object load {
phases CN;
load_class R;
name S1806-33-041;
parent nodeS1806-33-0411806-33-022;
constant_power_C 0.532902;
constant_power_A 0;
nominal_voltage 120;
constant_power_B 0;
};

object transformer {
configuration object transformer_configuration {
powerC_rating 50 kVA;
name 1806-33-021-CONFIG;
shunt_impedance 10000+10000j;
secondary_voltage 240.0;
connect_type SINGLE_PHASE_CENTER_TAPPED;
impedance 0.00033+0.0022j;
primary_voltage 7200.0;
powerB_rating 50 kVA;
powerA_rating 50 kVA;
};
phases CN;
from nodeS1806-33-0291806-33-021;
name 1806-33-021;
to node839496839493;
};

object load {
phases CN;
load_class R;
name S1806-33-029;
parent nodeS1806-33-0291806-33-021;
constant_power_C 3.01653;
constant_power_A 0;
nominal_voltage 120;
constant_power_B 0;
};

object load {
phases CN;
load_class R;
name S1806-33-046;
parent nodeS1806-33-0291806-33-021;
constant_power_C 0;
constant_power_A 0;
nominal_voltage 120;
constant_power_B 0;
};

object transformer {
configuration object transformer_configuration {
powerC_rating 50 kVA;
name 1806-33-089-CONFIG;
shunt_impedance 10000+10000j;
secondary_voltage 240.0;
connect_type SINGLE_PHASE_CENTER_TAPPED;
impedance 0.00033+0.0022j;
primary_voltage 7200.0;
powerB_rating 50 kVA;
powerA_rating 50 kVA;
};
phases CN;
from nodeS1806-33-0561806-33-089;
name 1806-33-089;
to node839493974130;
};

object load {
phases CN;
load_class R;
name S1806-33-056;
parent nodeS1806-33-0561806-33-089;
constant_power_C 1.29141;
constant_power_A 0;
nominal_voltage 120;
constant_power_B 0;
};

object transformer {
configuration object transformer_configuration {
powerC_rating 50 kVA;
name 1806-33-020-CONFIG;
shunt_impedance 10000+10000j;
secondary_voltage 240.0;
connect_type SINGLE_PHASE_CENTER_TAPPED;
impedance 0.00033+0.0022j;
primary_voltage 7200.0;
powerB_rating 50 kVA;
powerA_rating 50 kVA;
};
phases CN;
from nodeS1806-33-0221806-33-020;
name 1806-33-020;
to node839491839490;
};

object load {
phases CN;
load_class R;
name S1806-33-022;
parent nodeS1806-33-0221806-33-020;
constant_power_C 0.423987;
constant_power_A 0;
nominal_voltage 120;
constant_power_B 0;
};

object load {
phases CN;
load_class R;
name S1806-33-045;
parent nodeS1806-33-0221806-33-020;
constant_power_C 0.2859;
constant_power_A 0;
nominal_voltage 120;
constant_power_B 0;
};

object load {
phases CN;
load_class R;
name S1806-33-067;
parent nodeS1806-33-0221806-33-020;
constant_power_C 0.291734;
constant_power_A 0;
nominal_voltage 120;
constant_power_B 0;
};

object transformer {
configuration object transformer_configuration {
powerC_rating 50 kVA;
name 1806-33-017-CONFIG;
shunt_impedance 10000+10000j;
secondary_voltage 240.0;
connect_type SINGLE_PHASE_CENTER_TAPPED;
impedance 0.00033+0.0022j;
primary_voltage 7200.0;
powerB_rating 50 kVA;
powerA_rating 50 kVA;
};
phases CN;
from nodeS1806-33-0151806-33-017;
name 1806-33-017;
to node839488839486;
};

object load {
phases CN;
load_class R;
name S1806-33-015;
parent nodeS1806-33-0151806-33-017;
constant_power_C 0.213939;
constant_power_A 0;
nominal_voltage 120;
constant_power_B 0;
};

object transformer {
configuration object transformer_configuration {
powerC_rating 50 kVA;
name 1806-33-015-CONFIG;
shunt_impedance 10000+10000j;
secondary_voltage 240.0;
connect_type SINGLE_PHASE_CENTER_TAPPED;
impedance 0.00033+0.0022j;
primary_voltage 7200.0;
powerB_rating 50 kVA;
powerA_rating 50 kVA;
};
phases CN;
from nodeS1806-33-0331806-33-015;
name 1806-33-015;
to node839486839484;
};

object load {
phases CN;
load_class R;
name S1806-33-033;
parent nodeS1806-33-0331806-33-015;
constant_power_C 1.05219;
constant_power_A 0;
nominal_voltage 120;
constant_power_B 0;
};

object transformer {
configuration object transformer_configuration {
powerC_rating 50 kVA;
name 1806-33-014-CONFIG;
shunt_impedance 10000+10000j;
secondary_voltage 240.0;
connect_type SINGLE_PHASE_CENTER_TAPPED;
impedance 0.00033+0.0022j;
primary_voltage 7200.0;
powerB_rating 50 kVA;
powerA_rating 50 kVA;
};
phases CN;
from nodeS1806-33-0431806-33-014;
name 1806-33-014;
to node839483839481;
};

object load {
phases CN;
load_class R;
name S1806-33-043;
parent nodeS1806-33-0431806-33-014;
constant_power_C 2.96402;
constant_power_A 0;
nominal_voltage 120;
constant_power_B 0;
};

object transformer {
configuration object transformer_configuration {
powerC_rating 50 kVA;
name 1806-33-013-CONFIG;
shunt_impedance 10000+10000j;
secondary_voltage 240.0;
connect_type SINGLE_PHASE_CENTER_TAPPED;
impedance 0.00033+0.0022j;
primary_voltage 7200.0;
powerB_rating 50 kVA;
powerA_rating 50 kVA;
};
phases CN;
from nodeS1806-33-0551806-33-013;
name 1806-33-013;
to node839481839479;
};

object load {
phases CN;
load_class R;
name S1806-33-055;
parent nodeS1806-33-0551806-33-013;
constant_power_C 1.21751;
constant_power_A 0;
nominal_voltage 120;
constant_power_B 0;
};

object transformer {
configuration object transformer_configuration {
powerC_rating 50 kVA;
name 1806-33-012-CONFIG;
shunt_impedance 10000+10000j;
secondary_voltage 240.0;
connect_type SINGLE_PHASE_CENTER_TAPPED;
impedance 0.00033+0.0022j;
primary_voltage 7200.0;
powerB_rating 50 kVA;
powerA_rating 50 kVA;
};
phases CN;
from nodeS1806-33-0201806-33-012;
name 1806-33-012;
to node839479839477;
};

object load {
phases CN;
load_class R;
name S1806-33-020;
parent nodeS1806-33-0201806-33-012;
constant_power_C 1.32058;
constant_power_A 0;
nominal_voltage 120;
constant_power_B 0;
};

object load {
phases CN;
load_class R;
name S1806-33-064;
parent nodeS1806-33-0201806-33-012;
constant_power_C 1.59676;
constant_power_A 0;
nominal_voltage 120;
constant_power_B 0;
};

object transformer {
configuration object transformer_configuration {
powerC_rating 50 kVA;
name 1806-33-010-CONFIG;
shunt_impedance 10000+10000j;
secondary_voltage 240.0;
connect_type SINGLE_PHASE_CENTER_TAPPED;
impedance 0.00033+0.0022j;
primary_voltage 7200.0;
powerB_rating 50 kVA;
powerA_rating 50 kVA;
};
phases CN;
from nodeS1806-33-0541806-33-010;
name 1806-33-010;
to node839475839473;
};

object load {
phases CN;
load_class R;
name S1806-33-054;
parent nodeS1806-33-0541806-33-010;
constant_power_C 1.98379;
constant_power_A 0;
nominal_voltage 120;
constant_power_B 0;
};

object transformer {
configuration object transformer_configuration {
powerC_rating 50 kVA;
name 1806-33-009-CONFIG;
shunt_impedance 10000+10000j;
secondary_voltage 240.0;
connect_type SINGLE_PHASE_CENTER_TAPPED;
impedance 0.00033+0.0022j;
primary_voltage 7200.0;
powerB_rating 50 kVA;
powerA_rating 50 kVA;
};
phases CN;
from nodeS1806-33-0581806-33-009;
name 1806-33-009;
to node839473956777;
};

object load {
phases CN;
load_class R;
name S1806-33-058;
parent nodeS1806-33-0581806-33-009;
constant_power_C 1.51896;
constant_power_A 0;
nominal_voltage 120;
constant_power_B 0;
};

object transformer {
configuration object transformer_configuration {
powerC_rating 50 kVA;
name 1806-33-081-CONFIG;
shunt_impedance 10000+10000j;
secondary_voltage 240.0;
connect_type SINGLE_PHASE_CENTER_TAPPED;
impedance 0.00033+0.0022j;
primary_voltage 7200.0;
powerB_rating 50 kVA;
powerA_rating 50 kVA;
};
phases CN;
from nodeS1806-33-0761806-33-081;
name 1806-33-081;
to node956777839471;
};

object load {
phases CN;
load_class R;
name S1806-33-076;
parent nodeS1806-33-0761806-33-081;
constant_power_C 0.943275;
constant_power_A 0;
nominal_voltage 120;
constant_power_B 0;
};

object transformer {
configuration object transformer_configuration {
powerC_rating 50 kVA;
name 1806-33-008-CONFIG;
shunt_impedance 10000+10000j;
secondary_voltage 240.0;
connect_type SINGLE_PHASE_CENTER_TAPPED;
impedance 0.00033+0.0022j;
primary_voltage 7200.0;
powerB_rating 50 kVA;
powerA_rating 50 kVA;
};
phases CN;
from nodeS1806-33-0651806-33-008;
name 1806-33-008;
to node839471839469;
};

object load {
phases CN;
load_class R;
name S1806-33-065;
parent nodeS1806-33-0651806-33-008;
constant_power_C 1.83404;
constant_power_A 0;
nominal_voltage 120;
constant_power_B 0;
};

object transformer {
configuration object transformer_configuration {
powerC_rating 50 kVA;
name 1806-33-007-CONFIG;
shunt_impedance 10000+10000j;
secondary_voltage 240.0;
connect_type SINGLE_PHASE_CENTER_TAPPED;
impedance 0.00033+0.0022j;
primary_voltage 7200.0;
powerB_rating 50 kVA;
powerA_rating 50 kVA;
};
phases CN;
from nodeS1806-33-0071806-33-007;
name 1806-33-007;
to node839469839466;
};

object load {
phases CN;
load_class R;
name S1806-33-007;
parent nodeS1806-33-0071806-33-007;
constant_power_C 2.76175;
constant_power_A 0;
nominal_voltage 120;
constant_power_B 0;
};

object load {
phases CN;
load_class R;
name S1806-33-009;
parent nodeS1806-33-0071806-33-007;
constant_power_C 0.466775;
constant_power_A 0;
nominal_voltage 120;
constant_power_B 0;
};

object transformer {
configuration object transformer_configuration {
powerC_rating 50 kVA;
name 1806-33-006-CONFIG;
shunt_impedance 10000+10000j;
secondary_voltage 240.0;
connect_type SINGLE_PHASE_CENTER_TAPPED;
impedance 0.00033+0.0022j;
primary_voltage 7200.0;
powerB_rating 50 kVA;
powerA_rating 50 kVA;
};
phases CN;
from nodeS1806-33-0101806-33-006;
name 1806-33-006;
to node839466839464;
};

object load {
phases CN;
load_class R;
name S1806-33-010;
parent nodeS1806-33-0101806-33-006;
constant_power_C 4.9342;
constant_power_A 0;
nominal_voltage 120;
constant_power_B 0;
};

object transformer {
configuration object transformer_configuration {
powerC_rating 50 kVA;
name 1806-33-005-CONFIG;
shunt_impedance 10000+10000j;
secondary_voltage 240.0;
connect_type SINGLE_PHASE_CENTER_TAPPED;
impedance 0.00033+0.0022j;
primary_voltage 7200.0;
powerB_rating 50 kVA;
powerA_rating 50 kVA;
};
phases CN;
from nodeS1806-33-0061806-33-005;
name 1806-33-005;
to node839464839461;
};

object load {
phases CN;
load_class R;
name S1806-33-006;
parent nodeS1806-33-0061806-33-005;
constant_power_C 2.77148;
constant_power_A 0;
nominal_voltage 120;
constant_power_B 0;
};

object underground_line {
configuration object line_configuration {
spacing object line_spacing {
name 978204-LINESPACING;
};
conductor_A object underground_line_conductor {
name 978204-PHASEA;
};
conductor_B object underground_line_conductor {
name 978204-PHASEB;
};
name 978204-LINECONFIG;
conductor_C object underground_line_conductor {
name 978204-PHASEC;
};
};
phases ABC;
from node978186978204;
name 978204;
to node978174978172;
length 66;
};

object overhead_line {
configuration object line_configuration {
spacing object line_spacing {
name 978186-LINESPACING;
};
conductor_A object overhead_line_conductor {
resistance 0.216;
geometric_mean_radius 0.0304;
};
conductor_B object overhead_line_conductor {
resistance 0.216;
geometric_mean_radius 0.0304;
};
name 978186-LINECONFIG;
conductor_N object overhead_line_conductor {
resistance 0.592;
geometric_mean_radius 0.00814;
};
conductor_C object overhead_line_conductor {
resistance 0.216;
geometric_mean_radius 0.0304;
};
};
phases ABCN;
from node978169978186;
name 978186;
to node978186978204;
length 270;
};

object overhead_line {
configuration object line_configuration {
spacing object line_spacing {
name 978169-LINESPACING;
};
conductor_A object overhead_line_conductor {
resistance 0.216;
geometric_mean_radius 0.0304;
};
conductor_B object overhead_line_conductor {
resistance 0.216;
geometric_mean_radius 0.0304;
};
name 978169-LINECONFIG;
conductor_N object overhead_line_conductor {
resistance 0.592;
geometric_mean_radius 0.00814;
};
conductor_C object overhead_line_conductor {
resistance 0.216;
geometric_mean_radius 0.0304;
};
};
phases ABCN;
from node978180978169;
name 978169;
to node978169978186;
length 230;
};

object overhead_line {
configuration object line_configuration {
spacing object line_spacing {
name 978180-LINESPACING;
};
conductor_A object overhead_line_conductor {
resistance 0.216;
geometric_mean_radius 0.0304;
};
conductor_B object overhead_line_conductor {
resistance 0.216;
geometric_mean_radius 0.0304;
};
name 978180-LINECONFIG;
conductor_N object overhead_line_conductor {
resistance 0.592;
geometric_mean_radius 0.00814;
};
conductor_C object overhead_line_conductor {
resistance 0.216;
geometric_mean_radius 0.0304;
};
};
phases ABCN;
from node978184978180;
name 978180;
to node978180978169;
length 180;
};

object overhead_line {
configuration object line_configuration {
spacing object line_spacing {
name 978184-LINESPACING;
};
conductor_A object overhead_line_conductor {
resistance 0.216;
geometric_mean_radius 0.0304;
};
conductor_B object overhead_line_conductor {
resistance 0.216;
geometric_mean_radius 0.0304;
};
name 978184-LINECONFIG;
conductor_N object overhead_line_conductor {
resistance 0.592;
geometric_mean_radius 0.00814;
};
conductor_C object overhead_line_conductor {
resistance 0.216;
geometric_mean_radius 0.0304;
};
};
phases ABCN;
from node978198978184;
name 978184;
to node978184978180;
length 188;
};

object overhead_line {
configuration object line_configuration {
spacing object line_spacing {
name 978198-LINESPACING;
};
conductor_A object overhead_line_conductor {
resistance 0.216;
geometric_mean_radius 0.0304;
};
conductor_B object overhead_line_conductor {
resistance 0.216;
geometric_mean_radius 0.0304;
};
name 978198-LINECONFIG;
conductor_N object overhead_line_conductor {
resistance 0.592;
geometric_mean_radius 0.00814;
};
conductor_C object overhead_line_conductor {
resistance 0.216;
geometric_mean_radius 0.0304;
};
};
phases ABCN;
from node978173978198;
name 978198;
to node978198978184;
length 297;
};

object overhead_line {
configuration object line_configuration {
spacing object line_spacing {
name 978173-LINESPACING;
};
conductor_A object overhead_line_conductor {
resistance 0.216;
geometric_mean_radius 0.0304;
};
conductor_B object overhead_line_conductor {
resistance 0.216;
geometric_mean_radius 0.0304;
};
name 978173-LINECONFIG;
conductor_N object overhead_line_conductor {
resistance 0.592;
geometric_mean_radius 0.00814;
};
conductor_C object overhead_line_conductor {
resistance 0.216;
geometric_mean_radius 0.0304;
};
};
phases ABCN;
from node978185978173;
name 978173;
to node978173978198;
length 225;
};

object overhead_line {
configuration object line_configuration {
spacing object line_spacing {
name 978185-LINESPACING;
};
conductor_A object overhead_line_conductor {
resistance 0.216;
geometric_mean_radius 0.0304;
};
conductor_B object overhead_line_conductor {
resistance 0.216;
geometric_mean_radius 0.0304;
};
name 978185-LINECONFIG;
conductor_N object overhead_line_conductor {
resistance 0.592;
geometric_mean_radius 0.00814;
};
conductor_C object overhead_line_conductor {
resistance 0.216;
geometric_mean_radius 0.0304;
};
};
phases ABCN;
from node978190978185;
name 978185;
to node978185978173;
length 225;
};

object overhead_line {
configuration object line_configuration {
spacing object line_spacing {
name 978190-LINESPACING;
};
conductor_A object overhead_line_conductor {
resistance 0.216;
geometric_mean_radius 0.0304;
};
conductor_B object overhead_line_conductor {
resistance 0.216;
geometric_mean_radius 0.0304;
};
name 978190-LINECONFIG;
conductor_N object overhead_line_conductor {
resistance 0.592;
geometric_mean_radius 0.00814;
};
conductor_C object overhead_line_conductor {
resistance 0.216;
geometric_mean_radius 0.0304;
};
};
phases ABCN;
from node978196978190;
name 978190;
to node978190978185;
length 225;
};

object overhead_line {
configuration object line_configuration {
spacing object line_spacing {
name 978196-LINESPACING;
};
conductor_A object overhead_line_conductor {
resistance 0.216;
geometric_mean_radius 0.0304;
};
conductor_B object overhead_line_conductor {
resistance 0.216;
geometric_mean_radius 0.0304;
};
name 978196-LINECONFIG;
conductor_N object overhead_line_conductor {
resistance 0.592;
geometric_mean_radius 0.00814;
};
conductor_C object overhead_line_conductor {
resistance 0.216;
geometric_mean_radius 0.0304;
};
};
phases ABCN;
from node978178978196;
name 978196;
to node978196978190;
length 225;
};

object overhead_line {
configuration object line_configuration {
spacing object line_spacing {
name 978178-LINESPACING;
};
conductor_A object overhead_line_conductor {
resistance 0.216;
geometric_mean_radius 0.0304;
};
conductor_B object overhead_line_conductor {
resistance 0.216;
geometric_mean_radius 0.0304;
};
name 978178-LINECONFIG;
conductor_N object overhead_line_conductor {
resistance 0.592;
geometric_mean_radius 0.00814;
};
conductor_C object overhead_line_conductor {
resistance 0.216;
geometric_mean_radius 0.0304;
};
};
phases ABCN;
from node978171978178;
name 978178;
to node978178978196;
length 280;
};

object overhead_line {
configuration object line_configuration {
spacing object line_spacing {
name 978171-LINESPACING;
};
conductor_A object overhead_line_conductor {
resistance 0.216;
geometric_mean_radius 0.0304;
};
conductor_B object overhead_line_conductor {
resistance 0.216;
geometric_mean_radius 0.0304;
};
name 978171-LINECONFIG;
conductor_N object overhead_line_conductor {
resistance 0.592;
geometric_mean_radius 0.00814;
};
conductor_C object overhead_line_conductor {
resistance 0.216;
geometric_mean_radius 0.0304;
};
};
phases ABCN;
from node978175978171;
name 978171;
to node978171978178;
length 250;
};

object overhead_line {
configuration object line_configuration {
spacing object line_spacing {
name 978175-LINESPACING;
};
conductor_A object overhead_line_conductor {
resistance 0.216;
geometric_mean_radius 0.0304;
};
conductor_B object overhead_line_conductor {
resistance 0.216;
geometric_mean_radius 0.0304;
};
name 978175-LINECONFIG;
conductor_N object overhead_line_conductor {
resistance 0.592;
geometric_mean_radius 0.00814;
};
conductor_C object overhead_line_conductor {
resistance 0.216;
geometric_mean_radius 0.0304;
};
};
phases ABCN;
from node978181978175;
name 978175;
to node978175978171;
length 225;
};

object overhead_line {
configuration object line_configuration {
spacing object line_spacing {
name 978181-LINESPACING;
};
conductor_A object overhead_line_conductor {
resistance 0.216;
geometric_mean_radius 0.0304;
};
conductor_B object overhead_line_conductor {
resistance 0.216;
geometric_mean_radius 0.0304;
};
name 978181-LINECONFIG;
conductor_N object overhead_line_conductor {
resistance 0.592;
geometric_mean_radius 0.00814;
};
conductor_C object overhead_line_conductor {
resistance 0.216;
geometric_mean_radius 0.0304;
};
};
phases ABCN;
from node978197978181;
name 978181;
to node978181978175;
length 225;
};

object overhead_line {
configuration object line_configuration {
spacing object line_spacing {
name 978197-LINESPACING;
};
conductor_A object overhead_line_conductor {
resistance 0.216;
geometric_mean_radius 0.0304;
};
conductor_B object overhead_line_conductor {
resistance 0.216;
geometric_mean_radius 0.0304;
};
name 978197-LINECONFIG;
conductor_N object overhead_line_conductor {
resistance 0.592;
geometric_mean_radius 0.00814;
};
conductor_C object overhead_line_conductor {
resistance 0.216;
geometric_mean_radius 0.0304;
};
};
phases ABCN;
from node978176978197;
name 978197;
to node978197978181;
length 225;
};

object overhead_line {
configuration object line_configuration {
spacing object line_spacing {
name 978176-LINESPACING;
};
conductor_A object overhead_line_conductor {
resistance 0.216;
geometric_mean_radius 0.0304;
};
conductor_B object overhead_line_conductor {
resistance 0.216;
geometric_mean_radius 0.0304;
};
name 978176-LINECONFIG;
conductor_N object overhead_line_conductor {
resistance 0.592;
geometric_mean_radius 0.00814;
};
conductor_C object overhead_line_conductor {
resistance 0.216;
geometric_mean_radius 0.0304;
};
};
phases ABCN;
from node978189978176;
name 978176;
to node978176978197;
length 203;
};

object overhead_line {
configuration object line_configuration {
spacing object line_spacing {
name 978189-LINESPACING;
};
conductor_A object overhead_line_conductor {
resistance 0.216;
geometric_mean_radius 0.0304;
};
conductor_B object overhead_line_conductor {
resistance 0.216;
geometric_mean_radius 0.0304;
};
name 978189-LINECONFIG;
conductor_N object overhead_line_conductor {
resistance 0.592;
geometric_mean_radius 0.00814;
};
conductor_C object overhead_line_conductor {
resistance 0.216;
geometric_mean_radius 0.0304;
};
};
phases ABCN;
from node978202978189;
name 978189;
to node978189978176;
length 203;
};

object overhead_line {
configuration object line_configuration {
spacing object line_spacing {
name 978202-LINESPACING;
};
conductor_A object overhead_line_conductor {
resistance 0.216;
geometric_mean_radius 0.0304;
};
conductor_B object overhead_line_conductor {
resistance 0.216;
geometric_mean_radius 0.0304;
};
name 978202-LINECONFIG;
conductor_N object overhead_line_conductor {
resistance 0.592;
geometric_mean_radius 0.00814;
};
conductor_C object overhead_line_conductor {
resistance 0.216;
geometric_mean_radius 0.0304;
};
};
phases ABCN;
from node978182978202;
name 978202;
to node978202978189;
length 203;
};

object overhead_line {
configuration object line_configuration {
spacing object line_spacing {
name 978182-LINESPACING;
};
conductor_B object overhead_line_conductor {
resistance 2.57;
geometric_mean_radius 0.00437;
};
name 978182-LINECONFIG;
conductor_N object overhead_line_conductor {
resistance 2.57;
geometric_mean_radius 0.00437;
};
};
phases BN;
from node978177978182;
name 978182;
to node978182978202;
length 75;
};

object overhead_line {
configuration object line_configuration {
spacing object line_spacing {
name 978177-LINESPACING;
};
conductor_B object overhead_line_conductor {
resistance 2.57;
geometric_mean_radius 0.00437;
};
name 978177-LINECONFIG;
conductor_N object overhead_line_conductor {
resistance 2.57;
geometric_mean_radius 0.00437;
};
};
phases BN;
from node841713978177;
name 978177;
to node978177978182;
length 82;
};

object overhead_line {
configuration object line_configuration {
spacing object line_spacing {
name 841713-LINESPACING;
};
conductor_B object overhead_line_conductor {
resistance 2.57;
geometric_mean_radius 0.00437;
};
name 841713-LINECONFIG;
conductor_N object overhead_line_conductor {
resistance 2.57;
geometric_mean_radius 0.00437;
};
};
phases BN;
from nodeR2909x1841713;
name 841713;
to node841713978177;
length 10;
};

object fuse {
phases BN;
from node841714R2909x1;
name R2909x1;
current_limit 9999.0 A;
to nodeR2909x1841713;
};

object overhead_line {
configuration object line_configuration {
spacing object line_spacing {
name 841714-LINESPACING;
};
conductor_B object overhead_line_conductor {
resistance 2.57;
geometric_mean_radius 0.00437;
};
name 841714-LINECONFIG;
conductor_N object overhead_line_conductor {
resistance 2.57;
geometric_mean_radius 0.00437;
};
};
phases BN;
from node841715841714;
name 841714;
to node841714R2909x1;
length 509;
};

object overhead_line {
configuration object line_configuration {
spacing object line_spacing {
name 841715-LINESPACING;
};
conductor_B object overhead_line_conductor {
resistance 2.57;
geometric_mean_radius 0.00437;
};
name 841715-LINECONFIG;
conductor_N object overhead_line_conductor {
resistance 2.57;
geometric_mean_radius 0.00437;
};
};
phases BN;
from node969649841715;
name 841715;
to node841715841714;
length 40;
};

object overhead_line {
configuration object line_configuration {
spacing object line_spacing {
name 969649-LINESPACING;
};
conductor_B object overhead_line_conductor {
resistance 2.57;
geometric_mean_radius 0.00437;
};
name 969649-LINECONFIG;
conductor_N object overhead_line_conductor {
resistance 2.57;
geometric_mean_radius 0.00437;
};
};
phases BN;
from node841718969649;
name 969649;
to node969649841715;
length 440;
};

object overhead_line {
configuration object line_configuration {
spacing object line_spacing {
name 841718-LINESPACING;
};
conductor_B object overhead_line_conductor {
resistance 2.57;
geometric_mean_radius 0.00437;
};
name 841718-LINECONFIG;
conductor_N object overhead_line_conductor {
resistance 2.57;
geometric_mean_radius 0.00437;
};
};
phases BN;
from node841719841718;
name 841718;
to node841718969649;
length 1043;
};

object overhead_line {
configuration object line_configuration {
spacing object line_spacing {
name 841719-LINESPACING;
};
conductor_B object overhead_line_conductor {
resistance 2.57;
geometric_mean_radius 0.00437;
};
name 841719-LINECONFIG;
conductor_N object overhead_line_conductor {
resistance 2.57;
geometric_mean_radius 0.00437;
};
};
phases BN;
from node841720841719;
name 841719;
to node841719841718;
length 290;
};

object overhead_line {
configuration object line_configuration {
spacing object line_spacing {
name 841720-LINESPACING;
};
conductor_B object overhead_line_conductor {
resistance 2.57;
geometric_mean_radius 0.00437;
};
name 841720-LINECONFIG;
conductor_N object overhead_line_conductor {
resistance 2.57;
geometric_mean_radius 0.00437;
};
};
phases BN;
from node841722841720;
name 841720;
to node841720841719;
length 233;
};

object overhead_line {
configuration object line_configuration {
spacing object line_spacing {
name 841722-LINESPACING;
};
conductor_B object overhead_line_conductor {
resistance 2.57;
geometric_mean_radius 0.00437;
};
name 841722-LINECONFIG;
conductor_N object overhead_line_conductor {
resistance 2.57;
geometric_mean_radius 0.00437;
};
};
phases BN;
from node841723841722;
name 841722;
to node841722841720;
length 143;
};

object overhead_line {
configuration object line_configuration {
spacing object line_spacing {
name 841723-LINESPACING;
};
conductor_B object overhead_line_conductor {
resistance 2.57;
geometric_mean_radius 0.00437;
};
name 841723-LINECONFIG;
conductor_N object overhead_line_conductor {
resistance 2.57;
geometric_mean_radius 0.00437;
};
};
phases BN;
from nodeFFRN1-F011x1841723;
name 841723;
to node841723841722;
length 75;
};

object fuse {
phases BN;
from node841724FFRN1-F011x1;
name FFRN1-F011x1;
current_limit 9999.0 A;
to nodeFFRN1-F011x1841723;
};

object underground_line {
configuration object line_configuration {
spacing object line_spacing {
name 841724-LINESPACING;
};
conductor_B object underground_line_conductor {
name 841724-PHASEB;
};
name 841724-LINECONFIG;
};
phases B;
from node841725841724;
name 841724;
to node841724FFRN1-F011x1;
length 81;
};

object underground_line {
configuration object line_configuration {
spacing object line_spacing {
name 841725-LINESPACING;
};
conductor_B object underground_line_conductor {
name 841725-PHASEB;
};
name 841725-LINECONFIG;
};
phases B;
from node1806-0099841725;
name 841725;
to node841725841724;
length 135;
};

object transformer {
configuration object transformer_configuration {
powerC_rating 50 kVA;
name 1806-0099-CONFIG;
shunt_impedance 10000+10000j;
secondary_voltage 240.0;
connect_type SINGLE_PHASE_CENTER_TAPPED;
impedance 0.00033+0.0022j;
primary_voltage 7200.0;
powerB_rating 50 kVA;
powerA_rating 50 kVA;
};
phases BN;
from nodeS1806-33-0211806-0099;
name 1806-0099;
to node1806-0099841725;
};

object load {
phases BN;
load_class R;
name S1806-33-021;
parent nodeS1806-33-0211806-0099;
constant_power_C 0;
constant_power_A 0;
nominal_voltage 120;
constant_power_B 2.61783;
};

object overhead_line {
configuration object line_configuration {
spacing object line_spacing {
name 841739-LINESPACING;
};
conductor_B object overhead_line_conductor {
resistance 2.57;
geometric_mean_radius 0.00437;
};
name 841739-LINECONFIG;
conductor_N object overhead_line_conductor {
resistance 2.57;
geometric_mean_radius 0.00437;
};
};
phases BN;
from node1806-28-011841739;
name 841739;
to node841723841722;
length 331;
};

object transformer {
configuration object transformer_configuration {
powerC_rating 50 kVA;
name 1806-28-011-CONFIG;
shunt_impedance 10000+10000j;
secondary_voltage 240.0;
connect_type SINGLE_PHASE_CENTER_TAPPED;
impedance 0.00033+0.0022j;
primary_voltage 7200.0;
powerB_rating 50 kVA;
powerA_rating 50 kVA;
};
phases BN;
from nodeS1806-28-0011806-28-011;
name 1806-28-011;
to node1806-28-011841739;
};

object load {
phases BN;
load_class R;
name S1806-28-001;
parent nodeS1806-28-0011806-28-011;
constant_power_C 0;
constant_power_A 0;
nominal_voltage 120;
constant_power_B 1.71151;
};

object load {
phases BN;
load_class R;
name S1806-28-010;
parent nodeS1806-28-0011806-28-011;
constant_power_C 0;
constant_power_A 0;
nominal_voltage 120;
constant_power_B 1.53063;
};

object overhead_line {
configuration object line_configuration {
spacing object line_spacing {
name 841740-LINESPACING;
};
conductor_B object overhead_line_conductor {
resistance 2.57;
geometric_mean_radius 0.00437;
};
name 841740-LINECONFIG;
conductor_N object overhead_line_conductor {
resistance 2.57;
geometric_mean_radius 0.00437;
};
};
phases BN;
from node841727841740;
name 841740;
to node841723841722;
length 356;
};

object underground_line {
configuration object line_configuration {
spacing object line_spacing {
name 841727-LINESPACING;
};
conductor_B object underground_line_conductor {
name 841727-PHASEB;
};
name 841727-LINECONFIG;
};
phases B;
from nodeF18526x1841727;
name 841727;
to node841727841740;
length 30;
};

object fuse {
phases BN;
from node939255F18526x1;
name F18526x1;
current_limit 9999.0 A;
to nodeF18526x1841727;
};

object underground_line {
configuration object line_configuration {
spacing object line_spacing {
name 939255-LINESPACING;
};
conductor_B object underground_line_conductor {
name 939255-PHASEB;
};
name 939255-LINECONFIG;
};
phases B;
from node841728939255;
name 939255;
to node939255F18526x1;
length 281;
};

object underground_line {
configuration object line_configuration {
spacing object line_spacing {
name 841728-LINESPACING;
};
conductor_B object underground_line_conductor {
name 841728-PHASEB;
};
name 841728-LINECONFIG;
};
phases B;
from node1806-0098841728;
name 841728;
to node841728939255;
length 254;
};

object transformer {
configuration object transformer_configuration {
powerC_rating 50 kVA;
name 1806-0098-CONFIG;
shunt_impedance 10000+10000j;
secondary_voltage 240.0;
connect_type SINGLE_PHASE_CENTER_TAPPED;
impedance 0.00033+0.0022j;
primary_voltage 7200.0;
powerB_rating 50 kVA;
powerA_rating 50 kVA;
};
phases BN;
from nodeS1806-33-0341806-0098;
name 1806-0098;
to node1806-0098841728;
};

object load {
phases BN;
load_class R;
name S1806-33-034;
parent nodeS1806-33-0341806-0098;
constant_power_C 0;
constant_power_A 0;
nominal_voltage 120;
constant_power_B 0.0136143;
};

object load {
phases BN;
load_class R;
name S1806-33-036;
parent nodeS1806-33-0341806-0098;
constant_power_C 0;
constant_power_A 0;
nominal_voltage 120;
constant_power_B 0.859644;
};

object load {
phases BN;
load_class R;
name S1806-33-048;
parent nodeS1806-33-0341806-0098;
constant_power_C 0;
constant_power_A 0;
nominal_voltage 120;
constant_power_B 0.834361;
};

object overhead_line {
configuration object line_configuration {
spacing object line_spacing {
name 939235-LINESPACING;
};
conductor_B object overhead_line_conductor {
resistance 2.57;
geometric_mean_radius 0.00437;
};
name 939235-LINECONFIG;
conductor_N object overhead_line_conductor {
resistance 2.57;
geometric_mean_radius 0.00437;
};
};
phases BN;
from node841734939235;
name 939235;
to node841727841740;
length 338;
};

object underground_line {
configuration object line_configuration {
spacing object line_spacing {
name 841734-LINESPACING;
};
conductor_B object underground_line_conductor {
name 841734-PHASEB;
};
name 841734-LINECONFIG;
};
phases B;
from nodeF18527x1841734;
name 841734;
to node841734939235;
length 16;
};

object fuse {
phases BN;
from node939275F18527x1;
name F18527x1;
current_limit 9999.0 A;
to nodeF18527x1841734;
};

object underground_line {
configuration object line_configuration {
spacing object line_spacing {
name 939275-LINESPACING;
};
conductor_B object underground_line_conductor {
name 939275-PHASEB;
};
name 939275-LINECONFIG;
};
...